%mem=50GB
%nproc=16
#P uLC-wHPBE/6-31G iop(3/130=0123800000, 3/131=0123800000, 3/119=0876200000, 3/120=0876200000) scf=(conver=6,fermi,ndamp=35,noincfock,novaracc,vshift=500,xqc)

H6 C5

0 1
C 0.000000 0.878804 -0.931542
C 0.000000 1.128157 0.423457
C 0.000000 0.000000 1.240879
C -0.000000 -1.128157 0.423457
C -0.000000 -0.878804 -0.931542
H 0.000000 0.000000 -1.732269
H 0.000000 1.608300 -1.734053
H 0.000000 2.156626 0.765670
H 0.000000 0.000000 2.320778
H -0.000000 -2.156626 0.765670
H -0.000000 -1.608300 -1.734053



