#p opt freq LC-wPBE/6-311++g(d,p) IOP(3/107=0156600000) IOP(3/108=0156600000)

Title

 0 1
  C                                                 2.866386016396     -0.425034985899      0.103784694556
  C                                                 2.667341205830      0.990966467257      0.099843168572
  C                                                 3.698311674210      1.903552888072     -0.090822088302
  C                                                 4.972125630614      1.366387495425     -0.298220240098
  C                                                 5.209592100792     -0.012260622062     -0.327350208935
  C                                                 4.158021602137     -0.909290254623     -0.124263238379
  C                                                 1.543924962798     -1.064064380170      0.276312403809
  C                                                 0.670592284621      0.045226536921      0.373763024395
  H                                                 3.502750818756      2.973666067048     -0.090731215897
  H                                                 6.218138578503     -0.383556669854     -0.507064375421
  H                                                 4.349078024125     -1.981231135987     -0.156226642550
  C                                                -0.670597934379     -0.045226410946      0.373775898083
  C                                                -1.543932741590      1.064063386224      0.276327080738
  C                                                -2.866396403327      0.425030251645      0.103826795266
  C                                                -2.667350735688     -0.990971344977      0.099904684072
  C                                                -4.158035757360      0.909279514082     -0.124214207646
  C                                                -3.698322855031     -1.903562123361     -0.090730583164
  C                                                -5.209608087091      0.012245326227     -0.327271852838
  H                                                -4.349094217414      1.981219230992     -0.156196077127
  C                                                -4.972140219077     -1.366401939766     -0.298120467949
  H                                                -3.502760659088     -2.973675063063     -0.090624782183
  H                                                -6.218157151885      0.383537274748     -0.506979939737
  C                                                -0.543043493100     -2.467444210731      0.178469867922
  C                                                 1.722572981343     -3.563028009228      0.344303860031
  C                                                 2.903798372792     -3.752350655955      1.044336285613
  S                                                 1.253064040436     -5.051012840774     -0.448276963817
  C                                                 3.434891472127     -5.059876172489      0.916440454959
  H                                                 3.342731537513     -2.975382429424      1.669064603243
  C                                                 2.667913889142     -5.880548455300      0.116303080735
  H                                                 4.346274390446     -5.398943800286      1.409156843738
  C                                                 0.951837254840     -2.330089283111      0.268360412910
  C                                                 2.912428900253     -7.316052122839     -0.239063805592
  H                                                 2.082954075510     -7.963072374709      0.083248328052
  H                                                 3.036600884845     -7.452236884216     -1.324023731507
  H                                                 3.828294791646     -7.670306027591      0.252871777699
  O                                                -1.117507065977     -3.541871873689      0.011929555627
  C                                                 0.543034574981      2.467440363529      0.178419641216
  C                                                -1.722571096033      3.563031515704      0.344307242980
  C                                                -2.903763257945      3.752374664781      1.044390302326
  S                                                -1.253081286493      5.051003258736     -0.448309478719
  C                                                -3.434853298993      5.059901539446      0.916495970202
  H                                                -3.342672813212      2.975420975108      1.669152983871
  C                                                -2.667903853400      5.880556093473      0.116313519385
  H                                                -4.346212595496      5.398983377859      1.409246275978
  C                                                -0.951843724330      2.330088214806      0.268351639512
  C                                                -2.912424010516      7.316055870804     -0.239065508135
  H                                                -2.082931137896      7.963075459645      0.083201478683
  H                                                -3.036640819425      7.452224492177     -1.324022336244
  H                                                -3.828266721597      7.670323797373      0.252903118789
  O                                                 1.117495387605      3.541868357474      0.011871587046
  N                                                -1.284673751170     -1.264732434765      0.276596198434
  N                                                 1.284666898937      1.264730647066      0.276552629108
  Br                                                6.434441169947      2.560361002290     -0.560248530552
  Br                                               -6.434457833633     -2.560381563100     -0.560109132761

 
