#p opt LC-wPBE/6-311++g(d,p) IOP(3/107=0156600000) IOP(3/108=0156600000)

Title

 0 3
  C                                                 2.851153198097     -0.389939667453     -0.163370575627
  C                                                 2.644967343977      1.029412324373     -0.169366386438
  C                                                 3.660740079316      1.948404579624     -0.436435283200
  C                                                 4.912881606527      1.419233873678     -0.735291001623
  C                                                 5.152573442313      0.036364925404     -0.784680220187
  C                                                 4.129825605829     -0.864884273450     -0.502589991479
  C                                                 1.562886676374     -1.017248270111      0.128999656157
  C                                                 0.694056722276      0.047743243076      0.253248511806
  H                                                 3.463638499180      3.017847322263     -0.425906952833
  H                                                 6.144340557136     -0.328534376448     -1.051013125933
  H                                                 4.326825581496     -1.934260886486     -0.569293865752
  C                                                -0.694035897560     -0.047739453669      0.253262826328
  C                                                -1.562868081653      1.017251814873      0.129030129855
  C                                                -2.851141723439      0.389944073715     -0.163306601169
  C                                                -2.644956402153     -1.029407752678     -0.169310461904
  C                                                -4.129823118945      0.864891252182     -0.502487360638
  C                                                -3.660736563049     -1.948398518893     -0.436356261199
  C                                                -5.152578772159     -0.036356472596     -0.784553855342
  H                                                -4.326824195559      1.934268664814     -0.569178653732
  C                                                -4.912885657501     -1.419225802797     -0.735177392122
  H                                                -3.463635653039     -3.017841448699     -0.425835885790
  H                                                -6.144353194529      0.328544187003     -1.050857697538
  C                                                -0.513373732971     -2.476246049092      0.020822263900
  C                                                 1.709446063418     -3.526834777959      0.402247668174
  C                                                 2.993033250667     -3.602257540004      0.968375076409
  S                                                 1.109458269336     -5.152280880312      0.081266081485
  C                                                 3.473202984050     -4.916233662638      1.109835892151
  H                                                 3.523163246429     -2.719735930756      1.320024304454
  C                                                 2.581394629969     -5.874778967204      0.658746932220
  H                                                 4.440841383217     -5.168209910144      1.543948473634
  C                                                 0.960032269550     -2.339626695585      0.167180140576
  C                                                 2.756809951085     -7.360772100271      0.651926785748
  H                                                 1.977378334294     -7.863357801929      1.244599360599
  H                                                 2.707108508242     -7.769682766114     -0.368895378266
  H                                                 3.733322121061     -7.627065053436      1.077721660995
  O                                                -1.085296243128     -3.552724145510     -0.141555097760
  C                                                 0.513389813464      2.476250781362      0.020815616097
  C                                                -1.709432966396      3.526835955910      0.402259941965
  C                                                -2.993027618175      3.602248619687      0.968371834966
  S                                                -1.109452417589      5.152286781344      0.081288578987
  C                                                -3.473205892955      4.916221345180      1.109834626856
  H                                                -3.523157768398      2.719721545877      1.320007923710
  C                                                -2.581399024388      5.874773634366      0.658757411687
  H                                                -4.440850038345      5.168190067435      1.543938758506
  C                                                -0.960014585058      2.339630586911      0.167192581632
  C                                                -2.756829617382      7.360764888331      0.651926600860
  H                                                -1.977337149953      7.863372813889      1.244499275058
  H                                                -2.707247591604      7.769652231159     -0.368911253370
  H                                                -3.733297535824      7.627057142316      1.077823508675
  O                                                 1.085308915038      3.552726167348     -0.141591638627
  N                                                -1.285461682429     -1.276509911727      0.092860938550
  N                                                 1.285478851174      1.276514123888      0.092836346602
  Br                                                6.351050659611      2.616018244983     -1.114971242090
  Br                                               -6.351065438947     -2.616008075028     -1.114823526023


