#p opt freq LC-wPBE/6-311++g(d,p) IOP(3/107=0158500000) IOP(3/108=0158500000)

Title

 0 1
  C                                                 2.261836403195      1.811672858128      0.071315700829
  C                                                 1.088556703411      2.629004249577      0.066899230257
  C                                                 1.121150284940      4.005138005123     -0.121528057614
  C                                                 2.381434845854      4.574367238014     -0.325722301301
  C                                                 3.553457321768      3.810430958913     -0.353503699345
  C                                                 3.495748396762      2.429705524146     -0.153230892690
  C                                                 1.830351446526      0.407392583343      0.241258725818
  C                                                 0.422981913513      0.522060640247      0.337429150846
  H                                                 0.206030813350      4.593354651060     -0.122972686140
  H                                                 4.509787272590      4.301935243184     -0.530541683818
  H                                                 4.411493876052      1.840758864178     -0.184109871965
  C                                                -0.423007096769     -0.522098791904      0.337441750524
  C                                                -1.830377481402     -0.407434558707      0.241258916148
  C                                                -2.261853494868     -1.811723910766      0.071331023435
  C                                                -1.088570636433     -2.629052995102      0.066977096265
  C                                                -3.495750938561     -2.429773355473     -0.153257881863
  C                                                -1.121149472702     -4.005192798635     -0.121408580223
  C                                                -3.553445196914     -3.810505488628     -0.353490150099
  H                                                -4.411498313255     -1.840835796285     -0.184205601846
  C                                                -2.381421979075     -4.574436247911     -0.325632448573
  H                                                -0.206025847049     -4.593403121543     -0.122808649836
  H                                                -4.509764855913     -4.302019055898     -0.530557933152
  C                                                 1.438784662212     -2.076868475283      0.144453235235
  C                                                 3.783363259646     -1.161504067284      0.309026034137
  C                                                 4.724951960005     -0.426792460267      1.011889242983
  S                                                 4.555307904951     -2.513948795121     -0.488857754418
  C                                                 6.045029780235     -0.925808370935      0.882198101414
  H                                                 4.453540780851      0.421206012539      1.639458269849
  C                                                 6.125442665467     -2.042921382337      0.077798182130
  H                                                 6.913241335269     -0.489889367164      1.376649201531
  C                                                 2.354985337956     -0.887667567887      0.233363439230
  C                                                 7.344329297732     -2.838412924807     -0.280444588211
  H                                                 7.254912463183     -3.887592738749      0.038448226361
  H                                                 7.528471918935     -2.836292190063     -1.365386234865
  H                                                 8.226805146066     -2.409246548166      0.212807129584
  O                                                 1.835236719789     -3.229077244314     -0.020251708932
  C                                                -1.438802817915      2.076825634052      0.144378161758
  C                                                -3.783375436975      1.161507230502      0.309027716360
  C                                                -4.724951160627      0.426930559649      1.012049804471
  S                                                -4.555306959406      2.513910195391     -0.488939161076
  C                                                -6.045019414502      0.925971508349      0.882358025772
  H                                                -4.453535684727     -0.420982665726      1.639730464804
  C                                                -6.125434427264      2.042985914071      0.077821886136
  H                                                -6.913220904630      0.490145494773      1.376908799945
  C                                                -2.355006598207      0.887631432346      0.233333207979
  C                                                -7.344312205321      2.838471866822     -0.280463173766
  H                                                -7.254849273511      3.887686926437      0.038300541949
  H                                                -7.528501932684      2.836227283235     -1.365396607780
  H                                                -8.226779780728      2.409391341313      0.212877980495
  O                                                -1.835253368066      3.229024922319     -0.020396949052
  N                                                 0.052771879700     -1.801900130801      0.241446021505
  N                                                -0.052791305321      1.801859988675      0.241385245620
  Cl                                               -2.491041812635     -6.301782012410     -0.562775949291
  Cl                                                2.491074005502      6.301705935776     -0.562907947515

 
