#p opt 6-311++g(d,p) iop(3/107=0157600000,3/108=0157600000) lc-wpbe

Title

0 3
 C                 -1.84291400   -2.20704400   -0.15295400
 C                 -0.52843700   -2.78621400   -0.15798000
 C                 -0.29217900   -4.13189700   -0.42260600
 C                 -1.40543300   -4.92856100   -0.72468300
 C                 -2.70762600   -4.37765200   -0.77200800
 C                 -2.92819300   -3.03581300   -0.49255300
 C                 -1.69197400   -0.78491000    0.14030800
 C                 -0.32703200   -0.61396600    0.26278400
 H                  0.71811300   -4.53546900   -0.41104100
 H                 -3.54410100   -5.02416200   -1.03847700
 H                 -3.93689700   -2.63040200   -0.55919900
 C                  0.32702600    0.61395500    0.26278300
 C                  1.69196800    0.78489900    0.14030700
 C                  1.84291000    2.20703200   -0.15295400
 C                  0.52843300    2.78620400   -0.15798400
 C                  2.92819200    3.03580100   -0.49254200
 C                  0.29217900    4.13188800   -0.42261000
 C                  2.70762800    4.37764100   -0.77199600
 H                  3.93689600    2.63038900   -0.55918000
 C                  1.40543500    4.92855100   -0.72467900
 H                 -0.71811300    4.53546000   -0.41105100
 H                  3.54410500    5.02415000   -1.03845800
 C                 -1.82993800    1.74813400    0.03093700
 C                 -3.89761500    0.42159100    0.41611200
 C                 -4.64145800   -0.62599600    0.98712600
 S                 -4.95759600    1.79143700    0.09413900
 C                 -6.00852600   -0.33587900    1.13058900
 H                 -4.17419800   -1.54203900    1.34225900
 C                 -6.34876900    0.92827800    0.67619800
 H                 -6.73475300   -1.02058500    1.56847500
 C                 -2.49505200    0.42719600    0.17899400
 C                 -7.70136300    1.56719200    0.66953500
 H                 -7.71239100    2.49668000    1.25863500
 H                 -8.02246100    1.82274600   -0.35180300
 H                 -8.44437000    0.88226600    1.09876300
 O                 -2.43574100    2.80480500   -0.13101800
 C                  1.82993400   -1.74814700    0.03096100
 C                  3.89761300   -0.42159000    0.41609800
 C                  4.64145700    0.62602100    0.98706600
 S                  4.95759900   -1.79144100    0.09416200
 C                  6.00852800    0.33591800    1.13052200
 H                  4.17419600    1.54207600    1.34217000
 C                  6.34877400   -0.92825100    0.67616600
 H                  6.73475700    1.02064400    1.56837300
 C                  2.49504800   -0.42720500    0.17899300
 C                  7.70137400   -1.56715200    0.66949700
 H                  7.71240700   -2.49665800    1.25856700
 H                  8.02248300   -1.82267000   -0.35184700
 H                  8.44437200   -0.88223100    1.09875100
 O                  2.43573300   -2.80481300   -0.13104100
 N                 -0.40113700    1.76487000    0.10287700
 N                  0.40113200   -1.76488100    0.10288900
 C                 -1.22146900   -6.32140400   -1.00756600
 C                  1.22147400    6.32139400   -1.00756000
 N                 -1.08278600   -7.45501800   -1.23696300
 N                  1.08279300    7.45500900   -1.23695700

