#p opt freq LC-wHPBE/6-311++g(d,p) IOP(3/107=0154300000) IOP(3/108=0154300000)

Tuning input file generated by awtune with parameters: w01543

 0 3
  C                                                -2.086715456472     -1.989885281577     -0.164274998082
  C                                                -0.846635812968     -2.716039730679     -0.158439164066
  C                                                -0.764903949103     -4.082684678817     -0.405678006542
  C                                                -1.961690136219     -4.751897133277     -0.700820668246
  C                                                -3.192474425751     -4.056448211527     -0.758052199091
  C                                                -3.258983570864     -2.694471114415     -0.496328020264
  C                                                -1.774976107840     -0.591453766190      0.111982612931
  C                                                -0.399176595537     -0.574797106300      0.234468199873
  H                                                 0.193034929468     -4.598255858207     -0.386761620859
  H                                                -4.097060568789     -4.606743150603     -1.018363590492
  H                                                -4.214861202927     -2.177564046156     -0.570748345578
  C                                                 0.390750236428      0.570201423195      0.223159277850
  C                                                 1.765633054349      0.583568415470      0.099024333628
  C                                                 2.078344142582      1.978674820166     -0.209959398789
  C                                                 0.839735688830      2.701612811112     -0.226837885337
  C                                                 3.247315354357      2.677772229790     -0.557198932830
  C                                                 0.754443566755      4.065273722279     -0.512486320830
  C                                                 3.180130480404      4.035126200086     -0.857846466424
  H                                                 4.206526497910      2.164636039418     -0.615721657695
  C                                                 1.948993541181      4.710432345535     -0.818865792881
  H                                                -0.204596376528      4.578064455357     -0.509759906394
  H                                                 4.083818696034      4.579760796904     -1.130653128325
  C                                                -1.621328515480      1.940673328176     -0.028839875893
  C                                                -3.827108970195      0.863585986261      0.373989878475
  C                                                -4.685514045734     -0.086105380785      0.955238499986
  S                                                -4.723904815865      2.343623413224      0.040090088401
  C                                                -6.010503766919      0.360589180234      1.097292236188
  H                                                -4.325852674902     -1.046625159134      1.318135329059
  C                                                -6.204628248584      1.650962404014      0.631902957043
  H                                                -6.809514097886     -0.232642353392      1.542143896067
  C                                                -2.433785805638      0.706065715711      0.135182146847
  C                                                -7.475376973692      2.440470495322      0.619649758236
  H                                                -7.376044992930      3.376853730003      1.189402094683
  H                                                -7.773765856955      2.710467603478     -0.405055278217
  H                                                -8.288455793543      1.853576186951      1.067093578710
  O                                                -2.105548141639      3.056706490651     -0.206256831388
  C                                                 1.613869494686     -1.949462928729      0.023170147936
  C                                                 3.821052323932     -0.861379632105      0.384431955103
  C                                                 4.681570373953      0.100846341932      0.939696342096
  S                                                 4.716965683384     -2.346517152539      0.074359275839
  C                                                 6.008363201444     -0.340954282220      1.080810388507
  H                                                 4.322746128865      1.068362255024      1.284411748358
  C                                                 6.200792992962     -1.640288858301      0.640051272904
  H                                                 6.809857183215      0.262167743672      1.507475016211
  C                                                 2.424529989696     -0.710143448020      0.152804008236
  C                                                 7.472557286002     -2.428307886818      0.634228043759
  H                                                 7.378916838477     -3.352713739989      1.224079282014
  H                                                 7.763126566664     -2.719277053878     -0.386934633872
  H                                                 8.288265176550     -1.831200813552      1.062953346997
  O                                                 2.096709954676     -3.070530941694     -0.123574473056
  N                                                -0.201356363500      1.796535799728      0.045878060722
  N                                                 0.193069928621     -1.803319203957      0.091876412828
  C                                                -1.937303883097     -6.159731086397     -0.965716453352
  N                                                -1.928581295920     -7.304910663591     -1.180656544162
  Br                                                1.910181014058      6.575130559154     -1.223807056825


