#p opt freq LC-wPBE/6-311++g(d,p) IOP(3/107=0162500000) IOP(3/108=0162500000)

Title

 0 1
  C                                                 1.965396902743      2.129935272557      0.060943232859
  C                                                 0.681758325347      2.761613270631      0.057216626873
  C                                                 0.506637729606      4.126719778602     -0.131941743773
  C                                                 1.672189046294      4.861476478577     -0.335364562022
  C                                                 2.946914021904      4.297943067937     -0.364778630930
  C                                                 3.094717241498      2.924167386675     -0.163690862945
  C                                                 1.748951519100      0.676695821043      0.229374995776
  C                                                 0.339984286073      0.579083971181      0.327413344685
  H                                                -0.479865456646      4.585472267189     -0.136840907927
  H                                                 3.808719423329      4.940735493582     -0.543075460005
  H                                                 4.086741377297      2.475789005637     -0.193967949671
  C                                                -0.339990597981     -0.579091010507      0.327419951832
  C                                                -1.748957041469     -0.676704718166      0.229368811081
  C                                                -1.965399470943     -2.129947341956      0.060955614278
  C                                                -0.681760308506     -2.761624706236      0.057256456591
  C                                                -3.094715328151     -2.924184357521     -0.163684927668
  C                                                -0.506635699155     -4.126734080985     -0.131877488894
  C                                                -2.946907877552     -4.297963025690     -0.364749396993
  H                                                -4.086739348716     -2.475807805439     -0.193986199556
  C                                                -1.672183100670     -4.861495076530     -0.335306555808
  H                                                 0.479868005228     -4.585485710095     -0.136754520142
  H                                                -3.808709953032     -4.940758818335     -0.543050166230
  C                                                 1.733279833201     -1.837802417107      0.133926178901
  C                                                 3.915225216736     -0.580725073081      0.289574382010
  C                                                 4.737329326065      0.280095759058      0.997888311452
  S                                                 4.879007903286     -1.790869310027     -0.526325372152
  C                                                 6.117497547204     -0.011794274352      0.858516487713
  H                                                 4.343203500998      1.071026341793      1.634802542664
  C                                                 6.362463331506     -1.094630712817      0.041413618122
  H                                                 6.912049225364      0.545122896627      1.355233601953
  C                                                 2.460617088930     -0.524816910464      0.219692068863
  C                                                 7.685887494378     -1.693600336496     -0.328248648882
  H                                                 7.760767982242     -2.744315512521     -0.010877619645
  H                                                 7.859063866400     -1.662163095060     -1.414399537921
  H                                                 8.496004407320     -1.134905777883      0.159235282991
  O                                                 2.296858914163     -2.918148161743     -0.029798952953
  C                                                -1.733282824961      1.837791132514      0.133865761373
  C                                                -3.915229914721      0.580724451060      0.289540698086
  C                                                -4.737338755468     -0.280065805381      0.997886496386
  S                                                -4.879005809656      1.790850224962     -0.526394617682
  C                                                -6.117505249173      0.011828295862      0.858506644727
  H                                                -4.343217265381     -1.070974438851      1.634830420754
  C                                                -6.362465029183      1.094638835826      0.041367715919
  H                                                -6.912059760076     -0.545066096737      1.355244775190
  C                                                -2.460621880941      0.524808820211      0.219661459364
  C                                                -7.685886064220      1.693600563097     -0.328318497532
  H                                                -7.760740951213      2.744344996670     -0.011039016805
  H                                                -7.859085483921      1.662070314551     -1.414463212172
  H                                                -8.496003010776      1.134963586841      0.159231375960
  O                                                -2.296862697653      2.918136655389     -0.029858433836
  N                                                 0.321908007815     -1.773384089552      0.232235194775
  N                                                -0.321912641654      1.773375369163      0.232196929987
  F                                                 1.556736248101      6.200561625285     -0.522653094189
  F                                                -1.556726250310     -6.200583018990     -0.522572604836

 
