#p opt LC-wPBE/6-311++g(d,p) IOP(3/107=0162500000) IOP(3/108=0162500000)

Title

 0 3
  C                                                 1.925198029308      2.139037501074     -0.215410902361
  C                                                 0.634589786646      2.765332571310     -0.221169577546
  C                                                 0.444175455258      4.120862736991     -0.492157057341
  C                                                 1.589650958002      4.842179505747     -0.792310907559
  C                                                 2.868577551350      4.278276476066     -0.843768471051
  C                                                 3.038152375601      2.926722221184     -0.557689034991
  C                                                 1.719126745675      0.720293691553      0.079612866350
  C                                                 0.351430926996      0.600557841060      0.207072729553
  H                                                -0.543127077650      4.577050590667     -0.488556688883
  H                                                 3.714742774050      4.909509857695     -1.115277435566
  H                                                 4.031838622576      2.485565172168     -0.622910676130
  C                                                -0.351452404726     -0.600594584002      0.207074831783
  C                                                -1.719146754029     -0.720332893222      0.079592607816
  C                                                -1.925206467014     -2.139080743933     -0.215433898367
  C                                                -0.634597821781     -2.765377015954     -0.221133776441
  C                                                -3.038142296278     -2.926771028947     -0.557763213553
  C                                                -0.444170542426     -4.120910645687     -0.492094997995
  C                                                -2.868554502102     -4.278329228614     -0.843816658888
  H                                                -4.031824770503     -2.485616725014     -0.623046789063
  C                                                -1.589631518727     -4.842232713292     -0.792289243847
  H                                                 0.543133010004     -4.577095942781     -0.488452496170
  H                                                -3.714706539175     -4.909565054124     -1.115361054514
  C                                                 1.757778469872     -1.816922226254     -0.030276951857
  C                                                 3.877079187706     -0.569834405135      0.349967540840
  C                                                 4.660395493619      0.448242767690      0.917469074166
  S                                                 4.884603321536     -1.977898356159      0.025563495486
  C                                                 6.017639938303      0.107182535331      1.057332379846
  H                                                 4.227981327580      1.381726436175      1.271068612711
  C                                                 6.309235823492     -1.167645101834      0.603734497992
  H                                                 6.769882087165      0.765388233567      1.492090936283
  C                                                 2.473506854314     -0.521954035701      0.116204310705
  C                                                 7.637141080426     -1.857560483671      0.594882040846
  H                                                 7.615628153235     -2.784989173080      1.186924971326
  H                                                 7.946457264855     -2.127407757769     -0.426378818171
  H                                                 8.406380613367     -1.199696627038      1.020422015118
  O                                                 2.325981248917     -2.894755742881     -0.195713375543
  C                                                -1.757792667826      1.816883401242     -0.030329751922
  C                                                -3.877094975642      0.569825485210      0.349937010765
  C                                                -4.660411653109     -0.448180529514      0.917566632403
  S                                                -4.884604195720      1.977878250233      0.025437648271
  C                                                -6.017650165590     -0.107091927912      1.057417464687
  H                                                -4.228000830224     -1.381625931578      1.271268303424
  C                                                -6.309239529602      1.167693330049      0.603696834892
  H                                                -6.769891676049     -0.765244305291      1.492257858362
  C                                                -2.473525208244      0.521918957881      0.116163673424
  C                                                -7.637138495243      1.857619959697      0.594790060413
  H                                                -7.615592413607      2.785144679035      1.186680746004
  H                                                -7.946495028232      2.127303633579     -0.426502129100
  H                                                -8.406366383517      1.199831992997      1.020468451835
  O                                                -2.325990859576      2.894709343536     -0.195831397243
  N                                                 0.332341666043     -1.781013548979      0.044634742161
  N                                                -0.332357225280      1.780975191907      0.044599488534
  F                                                 1.462771096896      6.168647009104     -1.069758040608
  F                                                -1.462737860919     -6.168702644382     -1.069718481285


