#p opt freq LC-wPBE/6-311++g(d,p) IOP(3/107=0162800000) IOP(3/108=0162800000)

Title

 0 1
  C                                                -1.816486991079     -2.261737388976      0.029663866568
  C                                                -0.494588584711     -2.806163792492      0.024928092305
  C                                                -0.237965550818     -4.159555446873     -0.159982322427
  C                                                -1.340085816590     -4.997631886885     -0.361819840836
  C                                                -2.644228797608     -4.489620262907     -0.386662236155
  C                                                -2.892199820050     -3.127871319106     -0.190082983742
  C                                                -1.697887820844     -0.795229965750      0.196946192253
  C                                                -0.298867615129     -0.601938882951      0.288464224568
  H                                                 0.786195156151     -4.528138454345     -0.158998256472
  H                                                -1.174279742753     -6.066127307074     -0.510126822292
  H                                                -3.482763268409     -5.165903645498     -0.560481734514
  H                                                -3.911136428145     -2.743920762357     -0.219295525965
  C                                                 0.298876550799      0.601961349907      0.288461814943
  C                                                 1.697896279948      0.795253203143      0.196927039073
  C                                                 1.816489512463      2.261761865786      0.029634864220
  C                                                 0.494589643899      2.806186381055      0.024928501583
  C                                                 2.892192708333      3.127899464637     -0.190148670137
  C                                                 0.237958124921      4.159577084713     -0.159977086252
  C                                                 2.644212916923      4.489647371178     -0.386724649355
  H                                                 3.911129286828      2.743953153093     -0.219394924775
  C                                                 1.340070071244      4.997656487510     -0.361845382248
  H                                                -0.786203778316      4.528156778511     -0.158968461695
  H                                                 3.482740757221      5.165931943936     -0.560571519614
  H                                                 1.174257060940      6.066151028081     -0.510150970256
  C                                                -1.852624624006      1.715602402593      0.101316439976
  C                                                -3.943321223522      0.314725562777      0.274709309730
  C                                                -4.700416473272     -0.602451322372      0.984513315808
  S                                                -4.992506557052      1.465279028967     -0.522598512215
  C                                                -6.098114519040     -0.401052600196      0.860064749644
  H                                                -4.248934424138     -1.371332330254      1.610023623182
  C                                                -6.421429960586      0.668603129547      0.053047508346
  H                                                -6.849337281185     -1.012801052808      1.359790099675
  C                                                -2.488919150854      0.355647538266      0.192002547525
  C                                                -7.785177139999      1.180663140765     -0.300896526475
  H                                                -7.923353139342      2.225545044391      0.014578333681
  H                                                -7.969857081508      1.134445075494     -1.384721812956
  H                                                -8.551727361509      0.572922795179      0.198377867302
  O                                                -2.493324759898      2.753088815294     -0.061967149083
  C                                                 1.852627847487     -1.715578815048      0.101271990851
  C                                                 3.943327945645     -0.314723635363      0.274703893053
  C                                                 4.700428496962      0.602395608273      0.984577127853
  S                                                 4.992506208825     -1.465264343345     -0.522631881197
  C                                                 6.098125112863      0.400986467038      0.860130528875
  H                                                 4.248951014111      1.371241097975      1.610133619186
  C                                                 6.421434410358     -0.668626196416      0.053053991094
  H                                                 6.849350961703      1.012696558480      1.359898228088
  C                                                 2.488926053756     -0.355627361982      0.191979848640
  C                                                 7.785178406364     -1.180681347914     -0.300909356530
  H                                                 7.923342338774     -2.225580623230      0.014513129721
  H                                                 7.969864504151     -1.134410036549     -1.384731352066
  H                                                 8.551732008159     -0.572973939942      0.198399918000
  O                                                 2.493328920083     -2.753067847616     -0.061991787663
  N                                                -0.441968523151      1.748156364159      0.195013262753
  N                                                 0.441974134600     -1.748134172497      0.194995836420


