%mem=50GB
%nproc=16
#P uLC-wHPBE/6-31G iop(3/107=0311900000, 3/108=0311900000) scf=(conver=6,fermi,ndamp=35,noincfock,novaracc,vshift=500,xqc)

H6 C6

1 2
C -0.000000 1.396379 0.000000
C -1.209300 0.698190 -0.000000
C -1.209300 -0.698190 -0.000000
C 0.000000 -1.396379 0.000000
C 1.209300 -0.698190 0.000000
C 1.209300 0.698190 0.000000
H -0.000000 2.484613 0.000000
H -2.151738 1.242306 -0.000000
H -2.151738 -1.242306 -0.000000
H 0.000000 -2.484613 0.000000
H 2.151738 -1.242306 0.000000
H 2.151738 1.242306 0.000000



