%rwf=Br_s0-0-nicsxy-backbone-total.rwf
%nosave
%chk=Br_s0-0-nicsxy-backbone-total.chk
%nprocshared=24
%mem=20GB
#p     LC-wPBE/6-311++g(d,p) IOP(3/107=0156600000) IOP(3/108=0156600000) NMR=GIAO SCF=(qc,MAXCYCLE=512) 

Input Generated at 2018-12-13 20:34:12.578318 for Br_s0-0-nicsxy-backbone-total

0 1 
C		2.86639  -0.42503  0.10378  
C		2.66734  0.99097  0.09984  
C		3.69831  1.90355  -0.09082  
C		4.97213  1.36639  -0.29822  
C		5.20959  -0.01226  -0.32735  
C		4.15802  -0.90929  -0.12426  
C		1.54392  -1.06406  0.27631  
C		0.67059  0.04523  0.37376  
H		3.50275  2.97367  -0.09073  
H		6.21814  -0.38356  -0.50706  
H		4.34908  -1.98123  -0.15623  
C		-0.6706  -0.04523  0.37378  
C		-1.54393  1.06406  0.27633  
C		-2.8664  0.42503  0.10383  
C		-2.66735  -0.99097  0.0999  
C		-4.15804  0.90928  -0.12421  
C		-3.69832  -1.90356  -0.09073  
C		-5.20961  0.01225  -0.32727  
H		-4.34909  1.98122  -0.1562  
C		-4.97214  -1.3664  -0.29812  
H		-3.50276  -2.97368  -0.09062  
H		-6.21816  0.38354  -0.50698  
C		-0.54304  -2.46744  0.17847  
C		1.72257  -3.56303  0.3443  
C		2.9038  -3.75235  1.04434  
S		1.25306  -5.05101  -0.44828  
C		3.43489  -5.05988  0.91644  
H		3.34273  -2.97538  1.66906  
C		2.66791  -5.88055  0.1163  
H		4.34627  -5.39894  1.40916  
C		0.95184  -2.33009  0.26836  
C		2.91243  -7.31605  -0.23906  
H		2.08295  -7.96307  0.08325  
H		3.0366  -7.45224  -1.32402  
H		3.82829  -7.67031  0.25287  
O		-1.11751  -3.54187  0.01193  
C		0.54303  2.46744  0.17842  
C		-1.72257  3.56303  0.34431  
C		-2.90376  3.75237  1.04439  
S		-1.25308  5.051  -0.44831  
C		-3.43485  5.0599  0.9165  
H		-3.34267  2.97542  1.66915  
C		-2.6679  5.88056  0.11631  
H		-4.34621  5.39898  1.40925  
C		-0.95184  2.33009  0.26835  
C		-2.91242  7.31606  -0.23907  
H		-2.08293  7.96308  0.0832  
H		-3.03664  7.45222  -1.32402  
H		-3.82827  7.67032  0.2529  
O		1.1175  3.54187  0.01187  
N		-1.28467  -1.26473  0.2766  
N		1.28467  1.26473  0.27655  
Br		6.43444  2.56036  -0.56025  
Br		-6.43446  -2.56038  -0.56011  
bq		4.79702  0.64799  -1.98695  
bq		4.60264  0.61599  -1.95239  
bq		4.40827  0.58399  -1.91784  
bq		4.21389  0.55199  -1.88328  
bq		4.01952  0.51999  -1.84873  
bq		3.82514  0.48799  -1.81417  
bq		3.63479  0.45665  -1.78033  
bq		3.44076  0.42279  -1.7456  
bq		3.24673  0.38892  -1.71086  
bq		3.05271  0.35506  -1.67612  
bq		2.85868  0.3212  -1.64139  
bq		2.66465  0.28734  -1.60665  
bq		2.55173  0.25619  -1.58431  
bq		2.35491  0.23147  -1.55884  
bq		2.15808  0.20675  -1.53338  
bq		1.96126  0.18203  -1.50791  
bq		1.76443  0.15731  -1.48245  
bq		1.59145  0.13559  -1.46007  
bq		1.44797  -0.00225  -1.43976  
bq		1.30448  -0.14009  -1.41945  
bq		1.16099  -0.27792  -1.39914  
bq		1.0175  -0.41576  -1.37883  
bq		1.11787  -0.40208  -1.37154  
bq		0.95264  -0.51462  -1.37715  
bq		0.7874  -0.62716  -1.38276  
bq		0.62216  -0.7397  -1.38837  
bq		0.45692  -0.85224  -1.39398  
bq		0.29169  -0.96478  -1.3996  
bq		0.12645  -1.07732  -1.40521  
bq		0.12195  -1.08038  -1.40536  
bq		-0.04461  -1.1906  -1.41571  
bq		-0.21118  -1.30082  -1.42605  
bq		-0.37775  -1.41103  -1.4364  
bq		-0.54432  -1.52125  -1.44675  
bq		-0.71089  -1.63147  -1.45709  
bq		-0.87746  -1.74168  -1.46744  

