%rwf=CN_s0-0-nicsxy-backbone-total.rwf
%nosave
%chk=CN_s0-0-nicsxy-backbone-total.chk
%nprocshared=24
%mem=20GB
#p     LC-wPBE/6-311++g(d,p) iop(3/107=0157600000,3/108=0157600000)  NMR=GIAO SCF=(qc,MAXCYCLE=512) 

Input Generated at 2018-12-13 20:33:19.556276 for CN_s0-0-nicsxy-backbone-total

0 1 
C		-1.99321  -2.10091  0.06894  
C		-0.71827  -2.75122  0.06567  
C		-0.56656  -4.11618  -0.13039  
C		-1.73887  -4.86317  -0.34793  
C		-3.00429  -4.24611  -0.3765  
C		-3.13471  -2.8737  -0.16705  
C		-1.75693  -0.6521  0.25117  
C		-0.34842  -0.57506  0.35198  
H		0.42051  -4.57439  -0.12889  
H		-3.88803  -4.85638  -0.56334  
H		-4.11926  -2.40926  -0.19876  
C		0.34843  0.57507  0.35198  
C		1.75693  0.65211  0.25116  
C		1.99321  2.10092  0.06892  
C		0.71827  2.75123  0.06567  
C		3.13471  2.87371  -0.16709  
C		0.56656  4.11619  -0.13039  
C		3.00428  4.24612  -0.37654  
H		4.11926  2.40927  -0.19882  
C		1.73886  4.86318  -0.34795  
H		-0.42051  4.57439  -0.12888  
H		3.88802  4.85639  -0.5634  
C		-1.70848  1.86166  0.14572  
C		-3.90589  0.63646  0.31818  
C		-4.73829  -0.22451  1.01827  
S		-4.85548  1.88009  -0.46572  
C		-6.11242  0.09408  0.89685  
H		-4.35347  -1.03106  1.64121  
C		-6.34474  1.19744  0.1014  
H		-6.91268  -0.45719  1.39058  
C		-2.45621  0.55884  0.24072  
C		-7.66064  1.82422  -0.24697  
H		-7.71455  2.87074  0.08798  
H		-7.84212  1.81385  -1.3322  
H		-8.47631  1.2713  0.23768  
O		-2.25613  2.94762  -0.02833  
C		1.70849  -1.86165  0.1457  
C		3.9059  -0.63646  0.31816  
C		4.7383  0.22448  1.01827  
S		4.85547  -1.88008  -0.46577  
C		6.11243  -0.09411  0.89685  
H		4.35349  1.03102  1.64123  
C		6.34474  -1.19746  0.10137  
H		6.91269  0.45714  1.39058  
C		2.45621  -0.55884  0.24069  
C		7.66064  -1.82424  -0.24702  
H		7.71452  -2.87078  0.08786  
H		7.84214  -1.8138  -1.33224  
H		8.47631  -1.27137  0.2377  
O		2.25613  -2.94762  -0.02835  
N		-0.29801  1.7773  0.24919  
N		0.29801  -1.77729  0.24918  
C		-1.64368  -6.27962  -0.55222  
C		1.64367  6.27963  -0.55223  
N		-1.57683  -7.43023  -0.718  
N		1.57682  7.43024  -0.71801  
bq		-2.22042  -4.28924  -2.03455  
bq		-2.13498  -4.11198  -1.9988  
bq		-2.04954  -3.93472  -1.96305  
bq		-1.9641  -3.75746  -1.9273  
bq		-1.87866  -3.5802  -1.89155  
bq		-1.79321  -3.40294  -1.8558  
bq		-1.70816  -3.22648  -1.82021  
bq		-1.62411  -3.04859  -1.7843  
bq		-1.54006  -2.8707  -1.74838  
bq		-1.45601  -2.69281  -1.71247  
bq		-1.37196  -2.51492  -1.67655  
bq		-1.28791  -2.33702  -1.64064  
bq		-1.25012  -2.22509  -1.61746  
bq		-1.15746  -2.04987  -1.5908  
bq		-1.06481  -1.87464  -1.56413  
bq		-0.97215  -1.69942  -1.53746  
bq		-0.87949  -1.52419  -1.51079  
bq		-0.79814  -1.37034  -1.48738  
bq		-0.82869  -1.17385  -1.466  
bq		-0.85924  -0.97736  -1.44463  
bq		-0.88979  -0.78086  -1.42325  
bq		-0.92035  -0.58437  -1.40188  
bq		-0.96688  -0.68865  -1.39459  
bq		-0.96421  -0.48876  -1.40064  
bq		-0.96154  -0.28887  -1.40669  
bq		-0.95888  -0.08898  -1.41274  
bq		-0.95621  0.11091  -1.41879  
bq		-0.95354  0.3108  -1.42484  
bq		-0.95088  0.51069  -1.43089  
bq		-0.95081  0.51588  -1.43105  
bq		-0.94539  0.7155  -1.44204  
bq		-0.93997  0.91513  -1.45304  
bq		-0.93455  1.11475  -1.46403  
bq		-0.92912  1.31437  -1.47503  
bq		-0.9237  1.514  -1.48602  
bq		-0.91828  1.71362  -1.49702  

