%rwf=CN_t1_delta-0-nicsxy-backbone-total.rwf
%nosave
%chk=CN_t1_delta-0-nicsxy-backbone-total.chk
%nprocshared=24
%mem=20GB
#p    LC-wPBE/6-311++g(d,p) iop(3/107=0157600000,3/108=0157600000)  NMR=GIAO SCF=(qc,MAXCYCLE=512) 

Input Generated at 2018-12-13 20:33:38.178288 for CN_t1_delta-0-nicsxy-backbone-total

0 3 
C		-1.84291  -2.20704  -0.15295  
C		-0.52844  -2.78621  -0.15798  
C		-0.29218  -4.1319  -0.42261  
C		-1.40543  -4.92856  -0.72468  
C		-2.70763  -4.37765  -0.77201  
C		-2.92819  -3.03581  -0.49255  
C		-1.69197  -0.78491  0.14031  
C		-0.32703  -0.61397  0.26278  
H		0.71811  -4.53547  -0.41104  
H		-3.5441  -5.02416  -1.03848  
H		-3.9369  -2.6304  -0.5592  
C		0.32703  0.61396  0.26278  
C		1.69197  0.7849  0.14031  
C		1.84291  2.20703  -0.15295  
C		0.52843  2.7862  -0.15798  
C		2.92819  3.0358  -0.49254  
C		0.29218  4.13189  -0.42261  
C		2.70763  4.37764  -0.772  
H		3.9369  2.63039  -0.55918  
C		1.40544  4.92855  -0.72468  
H		-0.71811  4.53546  -0.41105  
H		3.5441  5.02415  -1.03846  
C		-1.82994  1.74813  0.03094  
C		-3.89762  0.42159  0.41611  
C		-4.64146  -0.626  0.98713  
S		-4.9576  1.79144  0.09414  
C		-6.00853  -0.33588  1.13059  
H		-4.1742  -1.54204  1.34226  
C		-6.34877  0.92828  0.6762  
H		-6.73475  -1.02059  1.56848  
C		-2.49505  0.4272  0.17899  
C		-7.70136  1.56719  0.66954  
H		-7.71239  2.49668  1.25864  
H		-8.02246  1.82275  -0.3518  
H		-8.44437  0.88227  1.09876  
O		-2.43574  2.8048  -0.13102  
C		1.82993  -1.74815  0.03096  
C		3.89761  -0.42159  0.4161  
C		4.64146  0.62602  0.98707  
S		4.9576  -1.79144  0.09416  
C		6.00853  0.33592  1.13052  
H		4.1742  1.54208  1.34217  
C		6.34877  -0.92825  0.67617  
H		6.73476  1.02064  1.56837  
C		2.49505  -0.4272  0.17899  
C		7.70137  -1.56715  0.6695  
H		7.71241  -2.49666  1.25857  
H		8.02248  -1.82267  -0.35185  
H		8.44437  -0.88223  1.09875  
O		2.43573  -2.80481  -0.13104  
N		-0.40114  1.76487  0.10288  
N		0.40113  -1.76488  0.10289  
C		-1.22147  -6.3214  -1.00757  
C		1.22147  6.32139  -1.00756  
N		-1.08279  -7.45502  -1.23696  
N		1.08279  7.45501  -1.23696  
bq		-1.86108  -4.2791  -2.39514  
bq		-1.78779  -4.09963  -2.34597  
bq		-1.71451  -3.92015  -2.29681  
bq		-1.64122  -3.74067  -2.24764  
bq		-1.56793  -3.5612  -2.19848  
bq		-1.49464  -3.38172  -2.14931  
bq		-1.42202  -3.20386  -2.10059  
bq		-1.35016  -3.02394  -2.05094  
bq		-1.27831  -2.84401  -2.0013  
bq		-1.20646  -2.66409  -1.95166  
bq		-1.13461  -2.48416  -1.90201  
bq		-1.06275  -2.30424  -1.85237  
bq		-0.9909  -2.12432  -1.80272  
bq		-1.06294  -2.17957  -1.82112  
bq		-0.98281  -2.00078  -1.78094  
bq		-0.90267  -1.822  -1.74075  
bq		-0.82253  -1.64322  -1.70057  
bq		-0.74239  -1.46444  -1.66038  
bq		-0.67511  -1.31434  -1.62665  
bq		-0.71878  -1.12207  -1.59311  
bq		-0.76245  -0.9298  -1.55958  
bq		-0.80612  -0.73752  -1.52605  
bq		-0.84978  -0.54525  -1.49252  
bq		-0.93177  -0.78877  -1.49432  
bq		-0.94158  -0.58911  -1.50059  
bq		-0.95138  -0.38945  -1.50685  
bq		-0.96119  -0.18979  -1.51311  
bq		-0.97099  0.00987  -1.51937  
bq		-0.9808  0.20953  -1.52564  
bq		-0.99061  0.4092  -1.5319  
bq		-0.99195  0.43655  -1.53276  
bq		-0.99938  0.6358  -1.54833  
bq		-1.0068  0.83505  -1.56391  
bq		-1.01422  1.03431  -1.57949  
bq		-1.02165  1.23356  -1.59507  
bq		-1.02907  1.43282  -1.61064  
bq		-1.0365  1.63207  -1.62622  

