%rwf=CNBr_s0-0-nicsxy-backbone-total.rwf
%nosave
%chk=CNBr_s0-0-nicsxy-backbone-total.chk
%nprocshared=24
%mem=20GB
#p     LC-wHPBE/6-311++g(d,p) IOP(3/107=0154300000) IOP(3/108=0154300000) NMR=GIAO SCF=(qc,MAXCYCLE=512) 

Input Generated at 2018-12-13 20:33:47.286537 for CNBr_s0-0-nicsxy-backbone-total

0 1 
C		-2.11908  -1.97971  0.07534  
C		-0.88546  -2.70636  0.07676  
C		-0.81749  -4.07957  -0.11053  
C		-2.03312  -4.7554  -0.32384  
C		-3.25898  -4.0627  -0.3568  
C		-3.30547  -2.68349  -0.15626  
C		-1.79503  -0.54691  0.24843  
C		-0.38445  -0.55497  0.34778  
H		0.1401  -4.59664  -0.1055  
H		-4.17823  -4.61932  -0.54007  
H		-4.25998  -2.16018  -0.19153  
C		0.38088  0.55081  0.34122  
C		1.79258  0.54266  0.24221  
C		2.11617  1.97374  0.05923  
C		0.88459  2.70016  0.04996  
C		3.29948  2.68108  -0.17479  
C		0.81212  4.07343  -0.15161  
C		3.25215  4.0608  -0.38892  
H		4.25735  2.16307  -0.20291  
C		2.02568  4.73423  -0.36476  
H		-0.14684  4.58702  -0.15558  
H		4.17072  4.61718  -0.57343  
C		-1.59342  1.95895  0.13177  
C		-3.86135  0.87111  0.31211  
C		-4.7449  0.06429  1.01391  
S		-4.73342  2.17017  -0.47295  
C		-6.09733  0.46634  0.89255  
H		-4.40996  -0.76356  1.63777  
C		-6.26213  1.58063  0.0956  
H		-6.92952  -0.03434  1.38758  
C		-2.41895  0.7049  0.23297  
C		-7.53753  2.28592  -0.25376  
H		-7.52356  3.33757  0.06924  
H		-7.7254  2.27486  -1.33805  
H		-8.38414  1.79128  0.241  
O		-2.07634  3.0756  -0.04584  
C		1.59127  -1.96478  0.15499  
C		3.85888  -0.87412  0.31668  
C		4.74301  -0.06231  1.01093  
S		4.73046  -2.17548  -0.46475  
C		6.09598  -0.46347  0.8879  
H		4.40865  0.76996  1.62917  
C		6.26027  -1.58168  0.09681  
H		6.92893  0.0413  1.37751  
C		2.41508  -0.70932  0.24011  
C		7.53537  -2.28796  -0.25187  
H		7.52348  -3.33754  0.07789  
H		7.7203  -2.28368  -1.33671  
H		8.38283  -1.78929  0.23742  
O		2.07164  -3.08426  -0.0088  
N		-0.19125  1.78961  0.23362  
N		0.18738  -1.79538  0.25444  
C		-2.02457  -6.17616  -0.51883  
N		-2.02865  -7.33  -0.67715  
Br		2.00181  6.61929  -0.6423  
bq		-2.47902  -4.16409  -2.01426  
bq		-2.38295  -3.99213  -1.97962  
bq		-2.28687  -3.82017  -1.94497  
bq		-2.1908  -3.64821  -1.91032  
bq		-2.09473  -3.47625  -1.87568  
bq		-1.99866  -3.3043  -1.84103  
bq		-1.9029  -3.13291  -1.8065  
bq		-1.80818  -2.96023  -1.77169  
bq		-1.71346  -2.78756  -1.73688  
bq		-1.61874  -2.61489  -1.70207  
bq		-1.52402  -2.44221  -1.66727  
bq		-1.4293  -2.26954  -1.63246  
bq		-1.38501  -2.16033  -1.61003  
bq		-1.28189  -1.99088  -1.5845  
bq		-1.17876  -1.82144  -1.55897  
bq		-1.07563  -1.65199  -1.53344  
bq		-0.9725  -1.48254  -1.50792  
bq		-0.88207  -1.33396  -1.48553  
bq		-0.90062  -1.13583  -1.46552  
bq		-0.91917  -0.9377  -1.4455  
bq		-0.93772  -0.73957  -1.42549  
bq		-0.95626  -0.54144  -1.40548  
bq		-1.01093  -0.63878  -1.3978  
bq		-0.9961  -0.43945  -1.40479  
bq		-0.98127  -0.24012  -1.41178  
bq		-0.96644  -0.0408  -1.41877  
bq		-0.95161  0.15853  -1.42576  
bq		-0.93679  0.35786  -1.43276  
bq		-0.92196  0.55718  -1.43975  
bq		-0.92156  0.56256  -1.43994  
bq		-0.904  0.76143  -1.45184  
bq		-0.88645  0.9603  -1.46375  
bq		-0.86889  1.15918  -1.47565  
bq		-0.85134  1.35805  -1.48756  
bq		-0.83378  1.55692  -1.49947  
bq		-0.81623  1.75579  -1.51137  

