%rwf=F_t1_delta-0-nicsxy-backbone-sigma.rwf
%nosave
%chk=F_t1_delta-0-nicsxy-backbone-sigma.chk
%nprocshared=24
%mem=20GB
#p    LC-wPBE/6-311++g(d,p) IOP(3/107=0162500000) IOP(3/108=0162500000) NMR=GIAO SCF=(qc,MAXCYCLE=512) 

Input Generated at 2018-12-13 20:34:21.203510 for F_t1_delta-0-nicsxy-backbone-sigma

0 3 
C		1.9252  2.13904  -0.21541  
C		0.63459  2.76533  -0.22117  
C		0.44418  4.12086  -0.49216  
C		1.58965  4.84218  -0.79231  
C		2.86858  4.27828  -0.84377  
C		3.03815  2.92672  -0.55769  
C		1.71913  0.72029  0.07961  
C		0.35143  0.60056  0.20707  
H		-0.54313  4.57705  -0.48856  
H		3.71474  4.90951  -1.11528  
H		4.03184  2.48557  -0.62291  
C		-0.35145  -0.60059  0.20707  
C		-1.71915  -0.72033  0.07959  
C		-1.92521  -2.13908  -0.21543  
C		-0.6346  -2.76538  -0.22113  
C		-3.03814  -2.92677  -0.55776  
C		-0.44417  -4.12091  -0.49209  
C		-2.86855  -4.27833  -0.84382  
H		-4.03182  -2.48562  -0.62305  
C		-1.58963  -4.84223  -0.79229  
H		0.54313  -4.5771  -0.48845  
H		-3.71471  -4.90957  -1.11536  
C		1.75778  -1.81692  -0.03028  
C		3.87708  -0.56983  0.34997  
C		4.6604  0.44824  0.91747  
S		4.8846  -1.9779  0.02556  
C		6.01764  0.10718  1.05733  
H		4.22798  1.38173  1.27107  
C		6.30924  -1.16765  0.60373  
H		6.76988  0.76539  1.49209  
C		2.47351  -0.52195  0.1162  
C		7.63714  -1.85756  0.59488  
H		7.61563  -2.78499  1.18692  
H		7.94646  -2.12741  -0.42638  
H		8.40638  -1.1997  1.02042  
O		2.32598  -2.89476  -0.19571  
C		-1.75779  1.81688  -0.03033  
C		-3.87709  0.56983  0.34994  
C		-4.66041  -0.44818  0.91757  
S		-4.8846  1.97788  0.02544  
C		-6.01765  -0.10709  1.05742  
H		-4.228  -1.38163  1.27127  
C		-6.30924  1.16769  0.6037  
H		-6.76989  -0.76524  1.49226  
C		-2.47353  0.52192  0.11616  
C		-7.63714  1.85762  0.59479  
H		-7.61559  2.78514  1.18668  
H		-7.9465  2.1273  -0.4265  
H		-8.40637  1.19983  1.02047  
O		-2.32599  2.89471  -0.19583  
N		0.33234  -1.78101  0.04463  
N		-0.33236  1.78098  0.0446  
F		1.46277  6.16865  -1.06976  
F		-1.46274  -6.1687  -1.06972  
H		2.04861  2.35894  0.75227  
H		0.758  2.98523  0.74652  
H		1.84254  0.94019  1.0473  
H		0.47484  0.82046  1.17476  
H		0.52529  4.30662  0.48708  
H		1.67077  5.02794  0.18693  
H		2.94969  4.46403  0.13547  
H		3.11927  3.11248  0.42155  
H		-0.39785  -0.54571  1.20449  
H		1.71138  -1.76204  0.96714  
H		2.27958  -2.83987  0.8017  
H		2.42711  -0.46707  1.11362  
H		-1.67276  -0.7752  1.07701  
H		-1.71141  1.76202  0.96709  
H		-2.2796  2.83984  0.80158  
H		-2.42714  0.46705  1.11358  
H		-2.00635  -2.32483  0.76381  
H		-0.71574  -2.95112  0.75811  
H		-3.1616  -3.14666  0.40992  
H		-0.56763  -4.3408  0.47559  
H		-2.99201  -4.49822  0.12386  
H		-1.71309  -5.06212  0.17539  
bq		2.01931  4.1864  -2.4631  
bq		1.93882  4.01028  -2.41309  
bq		1.85832  3.83415  -2.36308  
bq		1.77783  3.65803  -2.31307  
bq		1.69733  3.48191  -2.26307  
bq		1.61683  3.30578  -2.21306  
bq		1.54026  3.13824  -2.16548  
bq		1.46178  2.96133  -2.11505  
bq		1.3833  2.78441  -2.06462  
bq		1.30482  2.6075  -2.01419  
bq		1.22635  2.43059  -1.96376  
bq		1.14787  2.25368  -1.91333  
bq		1.142  2.1364  -1.883  
bq		1.05528  1.96083  -1.84231  
bq		0.96856  1.78526  -1.80161  
bq		0.88185  1.60969  -1.76092  
bq		0.79513  1.43412  -1.72023  
bq		0.7217  1.28545  -1.68577  
bq		0.75788  1.09169  -1.65191  
bq		0.79407  0.89792  -1.61805  
bq		0.83025  0.70416  -1.58419  
bq		0.86643  0.51039  -1.55033  
bq		0.95642  0.7537  -1.55226  
bq		0.95835  0.55381  -1.55866  
bq		0.96028  0.35393  -1.56506  
bq		0.96221  0.15404  -1.57146  
bq		0.96414  -0.04585  -1.57787  
bq		0.96607  -0.24574  -1.58427  
bq		0.968  -0.44563  -1.59067  
bq		0.96827  -0.47333  -1.59155  
bq		0.96793  -0.67271  -1.60723  
bq		0.9676  -0.8721  -1.6229  
bq		0.96727  -1.07148  -1.63857  
bq		0.96693  -1.27087  -1.65425  
bq		0.9666  -1.47025  -1.66992  
bq		0.96626  -1.66964  -1.68559  

