%rwf=H_s0-0-nicsxy-backbone-total.rwf
%nosave
%chk=H_s0-0-nicsxy-backbone-total.chk
%nprocshared=24
%mem=20GB
#p     LC-wPBE/6-311++g(d,p) IOP(3/107=0162800000) IOP(3/108=0162800000) NMR=GIAO SCF=(qc,MAXCYCLE=512) 

Input Generated at 2018-12-13 20:32:45.095485 for H_s0-0-nicsxy-backbone-total

0 1 
C		-1.81649  -2.26174  0.02966  
C		-0.49459  -2.80616  0.02493  
C		-0.23797  -4.15956  -0.15998  
C		-1.34009  -4.99763  -0.36182  
C		-2.64423  -4.48962  -0.38666  
C		-2.8922  -3.12787  -0.19008  
C		-1.69789  -0.79523  0.19695  
C		-0.29887  -0.60194  0.28846  
H		0.7862  -4.52814  -0.159  
H		-1.17428  -6.06613  -0.51013  
H		-3.48276  -5.1659  -0.56048  
H		-3.91114  -2.74392  -0.2193  
C		0.29888  0.60196  0.28846  
C		1.6979  0.79525  0.19693  
C		1.81649  2.26176  0.02963  
C		0.49459  2.80619  0.02493  
C		2.89219  3.1279  -0.19015  
C		0.23796  4.15958  -0.15998  
C		2.64421  4.48965  -0.38672  
H		3.91113  2.74395  -0.21939  
C		1.34007  4.99766  -0.36185  
H		-0.7862  4.52816  -0.15897  
H		3.48274  5.16593  -0.56057  
H		1.17426  6.06615  -0.51015  
C		-1.85262  1.7156  0.10132  
C		-3.94332  0.31473  0.27471  
C		-4.70042  -0.60245  0.98451  
S		-4.99251  1.46528  -0.5226  
C		-6.09811  -0.40105  0.86006  
H		-4.24893  -1.37133  1.61002  
C		-6.42143  0.6686  0.05305  
H		-6.84934  -1.0128  1.35979  
C		-2.48892  0.35565  0.192  
C		-7.78518  1.18066  -0.3009  
H		-7.92335  2.22555  0.01458  
H		-7.96986  1.13445  -1.38472  
H		-8.55173  0.57292  0.19838  
O		-2.49332  2.75309  -0.06197  
C		1.85263  -1.71558  0.10127  
C		3.94333  -0.31472  0.2747  
C		4.70043  0.6024  0.98458  
S		4.99251  -1.46526  -0.52263  
C		6.09813  0.40099  0.86013  
H		4.24895  1.37124  1.61013  
C		6.42143  -0.66863  0.05305  
H		6.84935  1.0127  1.3599  
C		2.48893  -0.35563  0.19198  
C		7.78518  -1.18068  -0.30091  
H		7.92334  -2.22558  0.01451  
H		7.96986  -1.13441  -1.38473  
H		8.55173  -0.57297  0.1984  
O		2.49333  -2.75307  -0.06199  
N		-0.44197  1.74816  0.19501  
N		0.44197  -1.74813  0.195  
bq		-1.87331  -4.48402  -2.05009  
bq		-1.80297  -4.29981  -2.01666  
bq		-1.73263  -4.11559  -1.98322  
bq		-1.66229  -3.93138  -1.94978  
bq		-1.59196  -3.74717  -1.91634  
bq		-1.52162  -3.56295  -1.8829  
bq		-1.45208  -3.38082  -1.84984  
bq		-1.38278  -3.19624  -1.81627  
bq		-1.31349  -3.01166  -1.78269  
bq		-1.24419  -2.82708  -1.74911  
bq		-1.1749  -2.64249  -1.71553  
bq		-1.1056  -2.45791  -1.68195  
bq		-1.07459  -2.34201  -1.65989  
bq		-0.99633  -2.15959  -1.63539  
bq		-0.91808  -1.97718  -1.6109  
bq		-0.83982  -1.79476  -1.5864  
bq		-0.76157  -1.61234  -1.5619  
bq		-0.69222  -1.4507  -1.54019  
bq		-0.73841  -1.2571  -1.52056  
bq		-0.78459  -1.0635  -1.50094  
bq		-0.83077  -0.86989  -1.48131  
bq		-0.87696  -0.67629  -1.46168  
bq		-0.91685  -0.76029  -1.45422  
bq		-0.93043  -0.56083  -1.45958  
bq		-0.944  -0.36136  -1.46494  
bq		-0.95758  -0.16189  -1.47031  
bq		-0.97115  0.03757  -1.47567  
bq		-0.98473  0.23704  -1.48103  
bq		-0.99831  0.43651  -1.4864  
bq		-0.9987  0.44232  -1.48655  
bq		-1.0096  0.64177  -1.49666  
bq		-1.02049  0.84122  -1.50676  
bq		-1.03138  1.04067  -1.51687  
bq		-1.04228  1.24011  -1.52697  
bq		-1.05317  1.43956  -1.53707  
bq		-1.06407  1.63901  -1.54718  

