22
MMFF94s energy: 39.3292 kcal/mol
C	-1.54216 -0.068032 -1.12258
C	-2.93396 0.0229563 -1.03314
C	-3.54102 0.230338 0.20277
C	-2.75802 0.347297 1.34829
C	-1.3663 0.257222 1.25675
C	-0.733087 0.0476863 0.020197
C	0.733086 -0.0476848 -0.0751308
C	1.34864 -1.1518 -0.688273
C	2.74033 -1.24348 -0.778689
C	3.54102 -0.230338 -0.257679
C	2.95164 0.873223 0.353698
C	1.55981 0.962613 0.444243
H	-1.08724 -0.218811 -2.09955
H	-3.54139 -0.0656924 -1.92995
H	-4.62319 0.300731 0.273132
H	-3.22818 0.506042 2.31517
H	-0.773576 0.339851 2.1656
H	0.741606 -1.95989 -1.09157
H	3.19657 -2.1079 -1.25379
H	4.62319 -0.300733 -0.32803
H	3.573 1.66755 0.75875
H	1.1192 1.83885 0.915655
