22
MMFF94s energy: 39.3292 kcal/mol
C	-1.56445 -0.774275 -0.75898
C	-2.9563 -0.684034 -0.669608
C	-3.54102 0.230343 0.202756
C	-2.73567 1.05429 0.984756
C	-1.344 0.963457 0.893176
C	-0.733086 0.0476805 0.0202152
C	0.733087 -0.0476891 -0.0751102
C	1.51702 1.08791 -0.339282
C	2.90878 0.99824 -0.430543
C	3.54102 -0.230336 -0.257696
C	2.78319 -1.36849 0.00554305
C	1.39144 -1.27711 0.095281
H	-1.12786 -1.48743 -1.45536
H	-3.5814 -1.32666 -1.28394
H	-4.62319 0.300743 0.273105
H	-3.18818 1.76702 1.66913
H	-0.732949 1.60846 1.52145
H	1.04196 2.05541 -0.488999
H	3.49646 1.88828 -0.639271
H	4.62319 -0.300727 -0.328067
H	3.27311 -2.32863 0.144198
H	0.818851 -2.17646 0.313121
