38
MMFF94s energy: -0.0691 kcal/mol
C	5.3653 0.132449 0.188184
C	4.15902 -0.78547 0.309158
C	2.98994 -0.382188 -0.592921
C	2.40979 1.01414 -0.342752
C	1.90907 1.27567 1.07868
C	0.79495 0.354418 1.58849
C	-0.562652 0.550267 0.900966
C	-0.815668 -0.438583 -0.240146
C	-2.14418 -0.201478 -0.966362
C	-3.3737 -0.461632 -0.0933008
C	-4.66466 -0.329769 -0.902756
C	-5.89119 -0.582882 -0.040621
H	6.19837 -0.262676 0.778423
H	5.69559 0.212279 -0.852281
H	5.144 1.1372 0.559791
H	3.83676 -0.831839 1.35504
H	4.4679 -1.80205 0.036717
H	2.1995 -1.13375 -0.489092
H	3.31777 -0.43386 -1.63897
H	3.17218 1.76559 -0.582054
H	1.59647 1.19386 -1.05463
H	1.56176 2.31524 1.13607
H	2.7549 1.21068 1.77358
H	0.657654 0.593469 2.65167
H	1.10518 -0.695588 1.55707
H	-0.667105 1.58116 0.543287
H	-1.33803 0.402967 1.66214
H	-0.78881 -1.46422 0.147616
H	-0.0163112 -0.363804 -0.982522
H	-2.17374 0.824801 -1.35228
H	-2.17841 -0.866951 -1.83808
H	-3.31251 -1.46788 0.338397
H	-3.40085 0.249244 0.739969
H	-4.73089 0.674759 -1.33666
H	-4.65754 -1.04323 -1.73499
H	-5.94669 0.135647 0.783375
H	-5.87102 -1.59181 0.383628
H	-6.80214 -0.484188 -0.639229
