38
MMFF94s energy: -2.2527 kcal/mol
C	5.54281 0.632868 0.0507042
C	4.87965 -0.585042 -0.573832
C	3.4236 -0.776139 -0.140783
C	2.50188 0.351602 -0.6128
C	1.01486 0.0591539 -0.381239
C	0.633418 -0.00455758 1.10025
C	-0.853256 -0.299111 1.3307
C	-1.77528 0.831591 0.867291
C	-3.23576 0.629904 1.28524
C	-3.90827 -0.640145 0.753454
C	-3.90105 -0.805765 -0.767977
C	-4.61638 0.316546 -1.50361
H	6.60291 0.66367 -0.220876
H	5.08456 1.56255 -0.299082
H	5.47374 0.601487 1.14262
H	4.93798 -0.512219 -1.66606
H	5.44761 -1.47765 -0.285484
H	3.38488 -0.864861 0.950704
H	3.06647 -1.72865 -0.551061
H	2.76521 1.29015 -0.111827
H	2.65387 0.511051 -1.6875
H	0.441725 0.852541 -0.873874
H	0.743467 -0.881435 -0.87551
H	0.903652 0.936246 1.59464
H	1.20733 -0.797641 1.59254
H	-1.11561 -1.23476 0.824022
H	-1.0053 -0.465468 2.40436
H	-1.42671 1.77791 1.29944
H	-1.719 0.948863 -0.219682
H	-3.29107 0.614531 2.38118
H	-3.81355 1.50658 0.968986
H	-4.94788 -0.65005 1.10498
H	-3.43223 -1.5195 1.20331
H	-2.87392 -0.890761 -1.13906
H	-4.39664 -1.75305 -1.01297
H	-5.64191 0.433862 -1.13949
H	-4.66076 0.0948859 -2.57476
H	-4.09505 1.27081 -1.38436
