38
MMFF94s energy: -0.8340 kcal/mol
C	4.15484 -1.53478 -1.15043
C	4.03483 -0.0342808 -1.36746
C	3.51828 0.721351 -0.141147
C	2.07763 0.360432 0.231211
C	1.57443 1.22555 1.39017
C	0.183237 0.824559 1.88935
C	-0.924383 1.06137 0.859471
C	-2.29992 0.73126 1.44452
C	-3.45242 1.00265 0.476849
C	-3.45823 0.198175 -0.828164
C	-3.64166 -1.31248 -0.653821
C	-2.33307 -2.08769 -0.614005
H	4.77502 -1.75737 -0.276451
H	4.61924 -2.00423 -2.02365
H	3.17485 -1.99937 -1.00781
H	5.02469 0.360211 -1.62637
H	3.38247 0.158793 -2.227
H	3.57528 1.79645 -0.352301
H	4.18021 0.53153 0.712607
H	2.01799 -0.695025 0.519009
H	1.43648 0.498185 -0.646311
H	1.56732 2.28041 1.0899
H	2.27549 1.14089 2.22988
H	-0.0367191 1.40764 2.79229
H	0.190676 -0.230545 2.18904
H	-0.906439 2.10853 0.534567
H	-0.74084 0.443902 -0.0243983
H	-2.33078 -0.308894 1.78528
H	-2.45945 1.34695 2.33909
H	-4.39699 0.822208 1.00555
H	-3.44868 2.06978 0.220266
H	-2.56809 0.418551 -1.42749
H	-4.31025 0.565578 -1.41578
H	-4.2362 -1.53267 0.239883
H	-4.21575 -1.68715 -1.51063
H	-1.73245 -1.83628 0.262374
H	-1.73374 -1.89139 -1.50885
H	-2.53692 -3.16281 -0.576645
