38
MMFF94s energy: -3.1760 kcal/mol
C	5.34683 -0.171908 0.185267
C	4.3093 -0.865133 -0.684168
C	3.08967 0.00606557 -0.992358
C	2.2559 0.342647 0.246874
C	0.992139 1.11843 -0.13348
C	0.172457 1.57662 1.07646
C	-0.347356 0.46104 1.98915
C	-1.1922 -0.618631 1.30618
C	-2.46082 -0.0716026 0.646648
C	-3.3147 -1.204 0.0697831
C	-4.64394 -0.722954 -0.516096
C	-4.48265 0.164928 -1.74036
H	6.23349 -0.805682 0.288832
H	5.65995 0.778483 -0.258279
H	4.96195 0.0243981 1.19018
H	3.9907 -1.79563 -0.200088
H	4.78239 -1.14742 -1.63232
H	3.4142 0.931699 -1.48321
H	2.45968 -0.529793 -1.71324
H	2.84827 0.943237 0.945978
H	1.98584 -0.586868 0.760065
H	0.369954 0.512684 -0.802145
H	1.27913 2.01012 -0.705158
H	0.785544 2.25668 1.6815
H	-0.67293 2.17618 0.718431
H	-0.941643 0.921344 2.78875
H	0.500249 -0.0233611 2.48845
H	-0.589778 -1.15627 0.565096
H	-1.47449 -1.35762 2.06672
H	-3.04541 0.490137 1.38489
H	-2.18752 0.623927 -0.153058
H	-3.53368 -1.92867 0.863824
H	-2.7464 -1.74069 -0.699712
H	-5.23598 -1.60143 -0.799427
H	-5.21773 -0.188034 0.249578
H	-5.46337 0.393126 -2.1701
H	-4.00403 1.11531 -1.48699
H	-3.88301 -0.331365 -2.50987
