38
MMFF94s energy: 0.4522 kcal/mol
C	5.29134 1.39555 0.48867
C	5.01603 0.282817 -0.510913
C	3.52487 0.00509781 -0.719313
C	2.83083 -0.530646 0.535882
C	1.4016 -1.02227 0.278265
C	0.435344 0.100514 -0.108507
C	-0.993163 -0.388133 -0.37578
C	-1.69756 -0.924854 0.873635
C	-3.16003 -1.31401 0.62153
C	-4.18309 -0.252351 1.04225
C	-4.16756 1.0541 0.249532
C	-4.53341 0.8752 -1.21586
H	4.77091 2.31592 0.205618
H	6.36417 1.61055 0.525013
H	4.97577 1.11519 1.49785
H	5.52475 -0.632581 -0.186996
H	5.45491 0.564206 -1.47564
H	3.03513 0.924379 -1.05956
H	3.42294 -0.728744 -1.52815
H	2.81024 0.239979 1.31493
H	3.41276 -1.37078 0.934703
H	1.05049 -1.50905 1.19494
H	1.41201 -1.78986 -0.504847
H	0.420737 0.865323 0.677321
H	0.791692 0.591042 -1.02129
H	-1.55862 0.452138 -0.789195
H	-0.975445 -1.16416 -1.15079
H	-1.17042 -1.82699 1.20585
H	-1.62764 -0.200995 1.69381
H	-3.37108 -2.20661 1.22557
H	-3.3138 -1.61578 -0.420276
H	-5.18529 -0.693931 0.970447
H	-4.03141 -0.0168149 2.10324
H	-3.19325 1.54527 0.336456
H	-4.89557 1.73825 0.702744
H	-5.51491 0.401547 -1.31895
H	-4.57494 1.84925 -1.7138
H	-3.79932 0.262223 -1.74578
