38
MMFF94s energy: -1.2963 kcal/mol
C	5.37367 -0.185901 0.873789
C	5.1464 -0.254658 -0.626331
C	3.95793 0.572287 -1.12589
C	2.59297 0.105061 -0.606202
C	2.10881 0.91165 0.603002
C	0.818898 0.363287 1.22144
C	-0.39182 0.455189 0.290177
C	-1.67112 0.00417334 0.999091
C	-2.8834 0.0911954 0.0688682
C	-4.16036 -0.363062 0.779415
C	-5.42032 -0.19671 -0.0727643
C	-5.44331 -1.08941 -1.30386
H	6.3055 -0.697627 1.13567
H	5.45059 0.851219 1.21454
H	4.56504 -0.678003 1.42185
H	5.01888 -1.30209 -0.92446
H	6.051 0.105585 -1.13123
H	4.11658 1.63409 -0.902928
H	3.94803 0.486908 -2.22031
H	1.86701 0.233188 -1.41808
H	2.61674 -0.965398 -0.371453
H	1.95627 1.95718 0.307893
H	2.87818 0.918962 1.38154
H	0.972971 -0.678796 1.52704
H	0.610875 0.93242 2.13611
H	-0.510305 1.4881 -0.0585812
H	-0.233578 -0.17163 -0.594493
H	-1.8412 0.630349 1.88337
H	-1.5516 -1.02775 1.3511
H	-3.00428 1.12368 -0.280434
H	-2.70295 -0.53226 -0.813978
H	-4.0602 -1.41118 1.0868
H	-4.28823 0.22425 1.69722
H	-5.5283 0.850232 -0.379199
H	-6.29244 -0.436733 0.547159
H	-6.40645 -0.997305 -1.81616
H	-5.30446 -2.1401 -1.03037
H	-4.66202 -0.810388 -2.01676
