38
MMFF94s energy: -3.2180 kcal/mol
C	4.47735 -0.64759 -1.69129
C	4.96587 -0.0215171 -0.394186
C	4.03852 -0.277465 0.79586
C	2.66828 0.390675 0.652071
C	1.82102 0.188201 1.91124
C	0.481051 0.928761 1.86946
C	-0.473994 0.400653 0.795331
C	-1.83719 1.09261 0.88234
C	-2.79633 0.698506 -0.245982
C	-3.24096 -0.765113 -0.1813
C	-4.20628 -1.15403 -1.30441
C	-5.5585 -0.463925 -1.21251
H	4.30138 -1.72085 -1.56812
H	3.55043 -0.181622 -2.03798
H	5.2277 -0.515523 -2.47749
H	5.10034 1.05691 -0.537562
H	5.9538 -0.435288 -0.159012
H	4.5303 0.102951 1.69977
H	3.91046 -1.35766 0.936819
H	2.14578 -0.0300435 -0.212717
H	2.80032 1.46326 0.466596
H	1.64484 -0.882566 2.07075
H	2.38198 0.548818 2.78244
H	0.658336 1.99991 1.71384
H	0.00448851 0.82725 2.85251
H	-0.592278 -0.680805 0.922728
H	-0.0496217 0.57002 -0.200298
H	-2.30211 0.876972 1.85205
H	-1.6883 2.17882 0.83831
H	-2.32623 0.901205 -1.21582
H	-3.67396 1.35101 -0.17667
H	-3.70634 -0.969061 0.790555
H	-2.36475 -1.41856 -0.257198
H	-4.36752 -2.23794 -1.26173
H	-3.75187 -0.939829 -2.27872
H	-6.01981 -0.631237 -0.234143
H	-5.47194 0.614114 -1.37551
H	-6.23425 -0.860004 -1.97744
