38
MMFF94s energy: -2.7727 kcal/mol
C	5.53637 0.864458 0.282764
C	4.30714 0.251626 -0.370877
C	3.40832 -0.429451 0.661582
C	2.2123 -1.15819 0.041322
C	1.23965 -0.281549 -0.754276
C	0.625866 0.89179 0.015673
C	-0.143673 0.518485 1.28687
C	-1.29622 -0.472877 1.09892
C	-2.38862 0.0356338 0.154562
C	-3.56509 -0.942462 0.0954823
C	-4.63822 -0.539473 -0.918168
C	-5.35335 0.754996 -0.563356
H	6.16458 1.34898 -0.47125
H	6.13733 0.0991413 0.784219
H	5.25155 1.61849 1.02349
H	4.62661 -0.476518 -1.12525
H	3.75757 1.04263 -0.892123
H	3.06258 0.306206 1.39663
H	4.00026 -1.16582 1.21989
H	1.66694 -1.67457 0.840026
H	2.58631 -1.9465 -0.624282
H	0.437379 -0.919997 -1.14328
H	1.75068 0.11482 -1.63989
H	-0.0388208 1.44092 -0.662002
H	1.41643 1.60215 0.285788
H	0.552959 0.106202 2.02628
H	-0.540487 1.44045 1.73055
H	-1.73856 -0.667785 2.08413
H	-0.91177 -1.43415 0.739615
H	-1.98157 0.167114 -0.854051
H	-2.73316 1.01657 0.50008
H	-3.19099 -1.93661 -0.179134
H	-4.01724 -1.03871 1.09015
H	-5.38166 -1.3436 -0.974353
H	-4.19388 -0.448972 -1.91618
H	-4.67713 1.61343 -0.611714
H	-6.17048 0.937722 -1.26867
H	-5.77988 0.70542 0.443437
