%chk=Br_s0-0-nicsxy-backbone-sigma.chk
%nosave
%rwf=Br_s0-0-nicsxy-backbone-sigma.rwf
#P LC-wpbe/6-311++G(d,p) NMR=GIAO SCF=(maxcycle=512,qc) iop=(3/107=0156600000,3/108=0156600000)

H16 C31 S2 Br1 N3 O2

0 1
C -2.119080 -1.979714 0.075342
C -0.885464 -2.706364 0.076761
C -0.817486 -4.079569 -0.110525
C -2.033119 -4.755404 -0.323836
C -3.258979 -4.062704 -0.356802
C -3.305469 -2.683494 -0.156259
C -1.795029 -0.546908 0.248426
C -0.384446 -0.554970 0.347776
H 0.140103 -4.596642 -0.105501
H -4.178231 -4.619323 -0.540071
H -4.259977 -2.160183 -0.191534
C 0.380882 0.550811 0.341217
C 1.792584 0.542658 0.242208
C 2.116172 1.973739 0.059230
C 0.884587 2.700165 0.049961
C 3.299485 2.681081 -0.174789
C 0.812117 4.073435 -0.151611
C 3.252152 4.060803 -0.388918
H 4.257347 2.163072 -0.202910
C 2.025675 4.734231 -0.364762
H -0.146845 4.587022 -0.155583
H 4.170724 4.617185 -0.573429
C -1.593417 1.958952 0.131768
C -3.861350 0.871112 0.312114
C -4.744896 0.064289 1.013910
S -4.733415 2.170172 -0.472946
C -6.097330 0.466340 0.892547
H -4.409965 -0.763560 1.637773
C -6.262126 1.580634 0.095596
H -6.929522 -0.034343 1.387576
C -2.418951 0.704899 0.232974
C -7.537527 2.285917 -0.253758
H -7.523562 3.337574 0.069239
H -7.725397 2.274859 -1.338046
H -8.384140 1.791284 0.241002
O -2.076336 3.075603 -0.045840
C 1.591270 -1.964779 0.154988
C 3.858885 -0.874124 0.316676
C 4.743011 -0.062307 1.010929
S 4.730465 -2.175479 -0.464748
C 6.095978 -0.463466 0.887898
H 4.408647 0.769955 1.629170
C 6.260275 -1.581684 0.096812
H 6.928935 0.041301 1.377507
C 2.415082 -0.709319 0.240108
C 7.535367 -2.287959 -0.251869
H 7.523478 -3.337544 0.077894
H 7.720296 -2.283676 -1.336715
H 8.382830 -1.789294 0.237416
O 2.071640 -3.084260 -0.008803
N -0.191247 1.789608 0.233616
N 0.187382 -1.795376 0.254438
C -2.024574 -6.176156 -0.518828
N -2.028645 -7.329999 -0.677147
Br 2.001810 6.619293 -0.642301
bq	-2.479020099325286	-4.164086940188717	-2.0142643246940297
bq	-2.286874968832966	-3.8201703211531868	-1.9449706887722593
bq	-2.094729838340646	-3.476253702117656	-1.8756770528504887
bq	-1.902903799086286	-3.132908217929218	-1.8064984913623632
bq	-1.7134623557614796	-2.7875598182578156	-1.7368822404189546
bq	-1.5240209124366735	-2.4422114185864134	-1.6672659894755457
bq	-1.385014425790569	-2.1603330549848767	-1.610029317840027
bq	-1.1787562784638304	-1.8214365861735098	-1.5589728776142568
bq	-0.9724981311370918	-1.4825401173621426	-1.5079164373884868
bq	-0.882070075462269	-1.3339605380976762	-1.485532184067427
bq	-0.5100664339036768	-1.1929331326480703	-1.4440043430532479
bq	-0.13806279234508456	-1.0519057271984642	-1.4024765020390688
bq	-0.17775150267587114	-1.1071975984249114	-1.3956849792326425
bq	0.1834400599957764	-0.9357724049088546	-1.408096992880551
bq	0.5446316226674239	-0.7643472113927979	-1.4205090065284594
bq	0.9058231853390715	-0.5929220178767413	-1.4329210201763678
bq	0.9179066090942953	-0.5871871019217447	-1.4333362558464757
bq	0.5838804160276211	-0.36880181605382534	-1.4062370074847224
bq	0.24985422296094678	-0.15041653018590598	-1.3791377591229688
bq	0.07702864210273179	-0.08991899003333016	-1.351402476670682
bq	-0.25690874718113677	0.12827650339278973	-1.3810090078218678
bq	-0.5908461364650053	0.3464719968189096	-1.4106155389730535
bq	-0.9215571703654348	0.5625593818766699	-1.439936024912682
bq	-0.5603163078488695	0.7340160877976422	-1.4295611879010834
bq	-0.19907544533230426	0.9054727937186144	-1.4191863508894849
bq	0.16216541718426103	1.0769294996395868	-1.408811513877886
bq	-0.018802118031711904	0.9721909275006113	-1.3971840474458386
bq	0.3532330553064674	1.112949997671841	-1.4393351324112533
bq	0.7252682286446468	1.2537090678430711	-1.4814862173766683
bq	0.8829761964149883	1.3133776919217113	-1.4993543180983384
bq	1.0894629205517747	1.6517496944259538	-1.5529044878135474
bq	1.295949644688561	1.9901216969301962	-1.6064546575287562
bq	1.3395409613867035	2.0756132415361863	-1.6174791957124124
bq	1.5281488289781335	2.420869309267574	-1.6897655704816106
bq	1.7167566965695635	2.766125376998962	-1.7620519452508088
bq	1.9041929085513702	3.1092366709535195	-1.8338892680394125
bq	2.0961423477530747	3.4527230055089713	-1.9058097155061198
bq	2.288091786954779	3.796209340064423	-1.9777301629728272
 
 